molecule_opt.out
 OpenBabel09011815483D

 14 13  0  0  1  0  0  0  0  0999 V2000
   -0.3415   -1.5687   -0.6799 N   0  0  0  0  0  0  0  0  0  0  0  0
    0.5097   -0.9118    0.3792 C   0  0  2  0  0  0  0  0  0  0  0  0
   -0.0634    0.5984    0.4388 C   0  0  0  0  0  0  0  0  0  0  0  0
    2.0105   -0.8841    0.0686 C   0  0  0  0  0  0  0  0  0  0  0  0
    2.6979   -0.3549    1.1929 O   0  0  0  0  0  0  0  0  0  0  0  0
   -1.0959    0.6801   -0.2803 O   0  0  0  0  0  0  0  0  0  0  0  0
    0.5558    1.3966    1.1142 O   0  0  0  0  0  0  0  0  0  0  0  0
   -1.1400   -0.7671   -0.8997 H   0  0  0  0  0  0  0  0  0  0  0  0
    0.1848   -1.7662   -1.5329 H   0  0  0  0  0  0  0  0  0  0  0  0
   -0.7744   -2.4307   -0.3469 H   0  0  0  0  0  0  0  0  0  0  0  0
    0.3417   -1.3723    1.3791 H   0  0  0  0  0  0  0  0  0  0  0  0
    2.2336   -0.2681   -0.8243 H   0  0  0  0  0  0  0  0  0  0  0  0
    2.4432   -1.8956   -0.0483 H   0  0  0  0  0  0  0  0  0  0  0  0
    2.3158    0.5524    1.4313 H   0  0  0  0  0  0  0  0  0  0  0  0
  1 10  1  0  0  0  0
  1  2  1  0  0  0  0
  2  3  1  0  0  0  0
  2 11  1  1  0  0  0
  3  7  1  0  0  0  0
  4  2  1  0  0  0  0
  4  5  1  0  0  0  0
  5 14  1  0  0  0  0
  6  3  2  0  0  0  0
  8  1  1  0  0  0  0
  9  1  1  0  0  0  0
 12  4  1  0  0  0  0
 13  4  1  0  0  0  0
M  RAD  1   7   2
M  END
