14
Coordinates from ORCA-job orca_input
  N   -0.23961889928038     -1.68488247976071     -0.69567461727573
  C   0.51268861080991     -0.93733602837738      0.33028689597247
  C   -0.03656911344081      0.50150721237807      0.38068849876616
  C   2.04477607048188     -0.92699375977481      0.13802150456450
  O   2.71282165646647     -0.31587294902439      1.25775278230650
  O   -1.24162501573984      0.64852319587147     -0.21929986305801
  O   0.56686351074475      1.43773286750277      0.92144418751168
  H   -1.45291740060765     -0.24602123512785     -0.62572413597434
  H   0.17330147779908     -1.65573825355715     -1.62467308363276
  H   -0.50078503791392     -2.62880013509135     -0.43652272075054
  H   0.30962083635162     -1.39020963424461      1.30897486730942
  H   2.28946044370990     -0.42198545338997     -0.81150957401214
  H   2.41040296948215     -1.95541627180186      0.08267834846038
  H   2.32920537113685      0.58362970439777      1.38533075981242
